 Case_ID  AeroDyn15  AeroDyn15   DLC    DLC       DLC      ElastoDyn      ElastoDyn          ElastoDyn          ElastoDyn      ElastoDyn      ElastoDyn       Fst    Fst    HydroDyn  HydroDyn   HydroDyn   HydroDyn  HydroDyn                                                InflowWind                                                                                              InflowWind                                                  InflowWind    InflowWind      InflowWind      InflowWind   ServoDyn   ServoDyn   ServoDyn 
          AFAeroMod   WakeMod   Label  MeanWS   WindSeed    Azimuth        BlPitch1           BlPitch2           BlPitch3        NacYaw        RotSpeed       TMax  TStart  WaveDir    WaveHs   WavePkShp  WaveSeed1   WaveTp                                                FileName_BTS                                                                                            Filename_Uni                                               PropagationDir  RefHt_Uni       RefLength        WindType   TPitManS1  TPitManS2  TPitManS3 
    0         2          1       1.1    10.0   1501552846      0      6.846784408846557  6.846784408846557  6.846784408846557     0.0     9.925009388165828  240.0   60.0     0.0       1.54       0.0     304524126    7.65    /Users/egrant/Desktop/WEIS_Things/WEIS/openfast_runs/wind/weis_job_NTM_U10.000000_Seed1501552846.0.bts  /Users/egrant/Desktop/WEIS_Things/WEIS/openfast_runs/wind/weis_job_NTM_U10.000000_Seed1501552846.0.bts       0.0          120.0     163.56462306957457      3          9999       9999       9999   
